# generated using pymatgen
data_EuHg
_symmetry_space_group_name_H-M   'P 1'
_cell_length_a   3.99777734
_cell_length_b   3.94876052
_cell_length_c   3.97762108
_cell_angle_alpha   91.32236173
_cell_angle_beta   91.00919673
_cell_angle_gamma   91.61745661
_symmetry_Int_Tables_number   1
_chemical_formula_structural   EuHg
_chemical_formula_sum   'Eu1 Hg1'
_cell_volume   62.73956607
_cell_formula_units_Z   1
loop_
 _symmetry_equiv_pos_site_id
 _symmetry_equiv_pos_as_xyz
  1  'x, y, z'
loop_
 _atom_site_type_symbol
 _atom_site_label
 _atom_site_symmetry_multiplicity
 _atom_site_fract_x
 _atom_site_fract_y
 _atom_site_fract_z
 _atom_site_occupancy
  Eu  Eu0  1  0.000000  0.000000  0.000000  1
  Hg  Hg1  1  0.496442  0.494471  0.498569  1
